
---------- Begin Simulation Statistics ----------
final_tick                                  403247500                       # Number of ticks from beginning of simulation (restored from checkpoints and never reset)
host_inst_rate                                  12742                       # Simulator instruction rate (inst/s)
host_mem_usage                                 828548                       # Number of bytes of host memory used
host_op_rate                                    12742                       # Simulator op (including micro ops) rate (op/s)
host_seconds                                     7.85                       # Real time elapsed on the host
host_tick_rate                               51379965                       # Simulator tick rate (ticks/s)
sim_freq                                 1000000000000                       # Frequency of simulated ticks
sim_insts                                      100001                       # Number of instructions simulated
sim_ops                                        100001                       # Number of ops (including micro ops) simulated
sim_seconds                                  0.000403                       # Number of seconds simulated
sim_ticks                                   403247500                       # Number of ticks simulated
system.clk_domain.clock                          1000                       # Clock period in ticks
system.cpu.Branches                             16231                       # Number of branches fetched
system.cpu.committedInsts                      100001                       # Number of instructions committed
system.cpu.committedOps                        100001                       # Number of ops (including micro ops) committed
system.cpu.dtb.data_accesses                        0                       # DTB accesses
system.cpu.dtb.data_acv                             0                       # DTB access violations
system.cpu.dtb.data_hits                        39439                       # DTB hits
system.cpu.dtb.data_misses                          0                       # DTB misses
system.cpu.dtb.fetch_accesses                       0                       # ITB accesses
system.cpu.dtb.fetch_acv                            0                       # ITB acv
system.cpu.dtb.fetch_hits                           0                       # ITB hits
system.cpu.dtb.fetch_misses                         0                       # ITB misses
system.cpu.dtb.pwrStateResidencyTicks::UNDEFINED    403247500                       # Cumulative time (in ticks) in various power states
system.cpu.dtb.read_accesses                        0                       # DTB read accesses
system.cpu.dtb.read_acv                             0                       # DTB read access violations
system.cpu.dtb.read_hits                         9778                       # DTB read hits
system.cpu.dtb.read_misses                          0                       # DTB read misses
system.cpu.dtb.write_accesses                       0                       # DTB write accesses
system.cpu.dtb.write_acv                            0                       # DTB write access violations
system.cpu.dtb.write_hits                       29661                       # DTB write hits
system.cpu.dtb.write_misses                         0                       # DTB write misses
system.cpu.idle_fraction                            0                       # Percentage of idle cycles
system.cpu.itb.data_accesses                        0                       # DTB accesses
system.cpu.itb.data_acv                             0                       # DTB access violations
system.cpu.itb.data_hits                            0                       # DTB hits
system.cpu.itb.data_misses                          0                       # DTB misses
system.cpu.itb.fetch_accesses                     116                       # ITB accesses
system.cpu.itb.fetch_acv                            0                       # ITB acv
system.cpu.itb.fetch_hits                         116                       # ITB hits
system.cpu.itb.fetch_misses                         0                       # ITB misses
system.cpu.itb.pwrStateResidencyTicks::UNDEFINED    403247500                       # Cumulative time (in ticks) in various power states
system.cpu.itb.read_accesses                        0                       # DTB read accesses
system.cpu.itb.read_acv                             0                       # DTB read access violations
system.cpu.itb.read_hits                            0                       # DTB read hits
system.cpu.itb.read_misses                          0                       # DTB read misses
system.cpu.itb.write_accesses                       0                       # DTB write accesses
system.cpu.itb.write_acv                            0                       # DTB write access violations
system.cpu.itb.write_hits                           0                       # DTB write hits
system.cpu.itb.write_misses                         0                       # DTB write misses
system.cpu.kern.callpal::wrfen                      1     50.00%     50.00% # number of callpals executed
system.cpu.kern.callpal::whami                      1     50.00%    100.00% # number of callpals executed
system.cpu.kern.callpal::total                      2                       # number of callpals executed
system.cpu.kern.inst.arm                            0                       # number of arm instructions executed
system.cpu.kern.inst.hwrei                          3                       # number of hwrei instructions executed
system.cpu.kern.inst.quiesce                        0                       # number of quiesce instructions executed
system.cpu.kern.ipl_count::31                       1    100.00%    100.00% # number of times we switched to this ipl
system.cpu.kern.ipl_count::total                    1                       # number of times we switched to this ipl
system.cpu.kern.ipl_good::31                        1    100.00%    100.00% # number of times we switched to this ipl from a different ipl
system.cpu.kern.ipl_good::total                     1                       # number of times we switched to this ipl from a different ipl
system.cpu.kern.ipl_ticks::0                   271000    100.00%    100.00% # number of cycles we spent at this ipl
system.cpu.kern.ipl_ticks::total               271000                       # number of cycles we spent at this ipl
system.cpu.kern.ipl_used::31                        1                       # fraction of swpipl calls that actually changed the ipl
system.cpu.kern.ipl_used::total                     1                       # fraction of swpipl calls that actually changed the ipl
system.cpu.kern.mode_good::kernel                   0                      
system.cpu.kern.mode_good::user                     0                      
system.cpu.kern.mode_good::idle                     0                      
system.cpu.kern.mode_switch::kernel                 2                       # number of protection mode switches
system.cpu.kern.mode_switch::user                   0                       # number of protection mode switches
system.cpu.kern.mode_switch::idle                   0                       # number of protection mode switches
system.cpu.kern.mode_switch_good::kernel            0                       # fraction of useful protection mode switches
system.cpu.kern.mode_switch_good::user            nan                       # fraction of useful protection mode switches
system.cpu.kern.mode_switch_good::idle            nan                       # fraction of useful protection mode switches
system.cpu.kern.mode_switch_good::total             0                       # fraction of useful protection mode switches
system.cpu.kern.mode_ticks::kernel                  0                       # number of ticks spent at the given mode
system.cpu.kern.mode_ticks::user                    0                       # number of ticks spent at the given mode
system.cpu.kern.mode_ticks::idle                    0                       # number of ticks spent at the given mode
system.cpu.kern.swap_context                        1                       # number of times the context was actually changed
system.cpu.not_idle_fraction                        1                       # Percentage of non-idle cycles
system.cpu.numCycles                           806495                       # number of cpu cycles simulated
system.cpu.numWorkItemsCompleted                    0                       # number of work items this cpu completed
system.cpu.numWorkItemsStarted                      0                       # number of work items this cpu started
system.cpu.num_busy_cycles                     806495                       # Number of busy cycles
system.cpu.num_conditional_control_insts        14370                       # number of instructions that are conditional controls
system.cpu.num_fp_alu_accesses                    126                       # Number of float alu accesses
system.cpu.num_fp_insts                           126                       # number of float instructions
system.cpu.num_fp_register_reads                   96                       # number of times the floating registers were read
system.cpu.num_fp_register_writes                  60                       # number of times the floating registers were written
system.cpu.num_func_calls                        1013                       # number of times a function call or return occured
system.cpu.num_idle_cycles                          0                       # Number of idle cycles
system.cpu.num_int_alu_accesses                 99083                       # Number of integer alu accesses
system.cpu.num_int_insts                        99083                       # number of integer instructions
system.cpu.num_int_register_reads              135718                       # number of times the integer registers were read
system.cpu.num_int_register_writes              54530                       # number of times the integer registers were written
system.cpu.num_load_insts                        9779                       # Number of load instructions
system.cpu.num_mem_refs                         39442                       # number of memory refs
system.cpu.num_store_insts                      29663                       # Number of store instructions
system.cpu.num_vec_alu_accesses                     0                       # Number of vector alu accesses
system.cpu.num_vec_insts                            0                       # number of vector instructions
system.cpu.num_vec_register_reads                   0                       # number of times the vector registers were read
system.cpu.num_vec_register_writes                  0                       # number of times the vector registers were written
system.cpu.op_class::No_OpClass                    28      0.03%      0.03% # Class of executed instruction
system.cpu.op_class::IntAlu                     60428     60.43%     60.46% # Class of executed instruction
system.cpu.op_class::IntMult                        4      0.00%     60.46% # Class of executed instruction
system.cpu.op_class::IntDiv                         0      0.00%     60.46% # Class of executed instruction
system.cpu.op_class::FloatAdd                      30      0.03%     60.49% # Class of executed instruction
system.cpu.op_class::FloatCmp                       0      0.00%     60.49% # Class of executed instruction
system.cpu.op_class::FloatCvt                       0      0.00%     60.49% # Class of executed instruction
system.cpu.op_class::FloatMult                      0      0.00%     60.49% # Class of executed instruction
system.cpu.op_class::FloatMultAcc                   0      0.00%     60.49% # Class of executed instruction
system.cpu.op_class::FloatDiv                       6      0.01%     60.50% # Class of executed instruction
system.cpu.op_class::FloatMisc                      0      0.00%     60.50% # Class of executed instruction
system.cpu.op_class::FloatSqrt                      0      0.00%     60.50% # Class of executed instruction
system.cpu.op_class::SimdAdd                        0      0.00%     60.50% # Class of executed instruction
system.cpu.op_class::SimdAddAcc                     0      0.00%     60.50% # Class of executed instruction
system.cpu.op_class::SimdAlu                        0      0.00%     60.50% # Class of executed instruction
system.cpu.op_class::SimdCmp                        0      0.00%     60.50% # Class of executed instruction
system.cpu.op_class::SimdCvt                        0      0.00%     60.50% # Class of executed instruction
system.cpu.op_class::SimdMisc                       0      0.00%     60.50% # Class of executed instruction
system.cpu.op_class::SimdMult                       0      0.00%     60.50% # Class of executed instruction
system.cpu.op_class::SimdMultAcc                    0      0.00%     60.50% # Class of executed instruction
system.cpu.op_class::SimdShift                      0      0.00%     60.50% # Class of executed instruction
system.cpu.op_class::SimdShiftAcc                   0      0.00%     60.50% # Class of executed instruction
system.cpu.op_class::SimdDiv                        0      0.00%     60.50% # Class of executed instruction
system.cpu.op_class::SimdSqrt                       0      0.00%     60.50% # Class of executed instruction
system.cpu.op_class::SimdFloatAdd                   0      0.00%     60.50% # Class of executed instruction
system.cpu.op_class::SimdFloatAlu                   0      0.00%     60.50% # Class of executed instruction
system.cpu.op_class::SimdFloatCmp                   0      0.00%     60.50% # Class of executed instruction
system.cpu.op_class::SimdFloatCvt                   0      0.00%     60.50% # Class of executed instruction
system.cpu.op_class::SimdFloatDiv                   0      0.00%     60.50% # Class of executed instruction
system.cpu.op_class::SimdFloatMisc                  0      0.00%     60.50% # Class of executed instruction
system.cpu.op_class::SimdFloatMult                  0      0.00%     60.50% # Class of executed instruction
system.cpu.op_class::SimdFloatMultAcc               0      0.00%     60.50% # Class of executed instruction
system.cpu.op_class::SimdFloatSqrt                  0      0.00%     60.50% # Class of executed instruction
system.cpu.op_class::SimdReduceAdd                  0      0.00%     60.50% # Class of executed instruction
system.cpu.op_class::SimdReduceAlu                  0      0.00%     60.50% # Class of executed instruction
system.cpu.op_class::SimdReduceCmp                  0      0.00%     60.50% # Class of executed instruction
system.cpu.op_class::SimdFloatReduceAdd             0      0.00%     60.50% # Class of executed instruction
system.cpu.op_class::SimdFloatReduceCmp             0      0.00%     60.50% # Class of executed instruction
system.cpu.op_class::SimdAes                        0      0.00%     60.50% # Class of executed instruction
system.cpu.op_class::SimdAesMix                     0      0.00%     60.50% # Class of executed instruction
system.cpu.op_class::SimdSha1Hash                   0      0.00%     60.50% # Class of executed instruction
system.cpu.op_class::SimdSha1Hash2                  0      0.00%     60.50% # Class of executed instruction
system.cpu.op_class::SimdSha256Hash                 0      0.00%     60.50% # Class of executed instruction
system.cpu.op_class::SimdSha256Hash2                0      0.00%     60.50% # Class of executed instruction
system.cpu.op_class::SimdShaSigma2                  0      0.00%     60.50% # Class of executed instruction
system.cpu.op_class::SimdShaSigma3                  0      0.00%     60.50% # Class of executed instruction
system.cpu.op_class::SimdPredAlu                    0      0.00%     60.50% # Class of executed instruction
system.cpu.op_class::MemRead                     9755      9.75%     70.25% # Class of executed instruction
system.cpu.op_class::MemWrite                   29603     29.60%     99.85% # Class of executed instruction
system.cpu.op_class::FloatMemRead                  30      0.03%     99.88% # Class of executed instruction
system.cpu.op_class::FloatMemWrite                 60      0.06%     99.94% # Class of executed instruction
system.cpu.op_class::IprAccess                     57      0.06%    100.00% # Class of executed instruction
system.cpu.op_class::InstPrefetch                   0      0.00%    100.00% # Class of executed instruction
system.cpu.op_class::total                     100001                       # Class of executed instruction
system.cpu.pwrStateResidencyTicks::ON       403247500                       # Cumulative time (in ticks) in various power states
system.cpu_clk_domain.clock                       500                       # Clock period in ticks
system.cpu_voltage_domain.voltage                   1                       # Voltage in Volts
system.disk0.dma_read_bytes                         0                       # Number of bytes transfered via DMA reads (not PRD).
system.disk0.dma_read_full_pages                    0                       # Number of full page size DMA reads (not PRD).
system.disk0.dma_read_txs                           0                       # Number of DMA read transactions (not PRD).
system.disk0.dma_write_bytes                        0                       # Number of bytes transfered via DMA writes.
system.disk0.dma_write_full_pages                   0                       # Number of full page size DMA writes.
system.disk0.dma_write_txs                          0                       # Number of DMA write transactions.
system.disk2.dma_read_bytes                         0                       # Number of bytes transfered via DMA reads (not PRD).
system.disk2.dma_read_full_pages                    0                       # Number of full page size DMA reads (not PRD).
system.disk2.dma_read_txs                           0                       # Number of DMA read transactions (not PRD).
system.disk2.dma_write_bytes                        0                       # Number of bytes transfered via DMA writes.
system.disk2.dma_write_full_pages                   0                       # Number of full page size DMA writes.
system.disk2.dma_write_txs                          0                       # Number of DMA write transactions.
system.iobus.pkt_count_system.ruby.l1_cntrl0.sequencer.mem-master-port::system.tsunami.backdoor.pio          852                       # Packet count per connected master and slave (bytes)
system.iobus.pkt_count_system.ruby.l1_cntrl0.sequencer.mem-master-port::total          852                       # Packet count per connected master and slave (bytes)
system.iobus.pkt_count::total                     852                       # Packet count per connected master and slave (bytes)
system.iobus.pkt_size_system.ruby.l1_cntrl0.sequencer.mem-master-port::system.tsunami.backdoor.pio         3388                       # Cumulative packet size per connected master and slave (bytes)
system.iobus.pkt_size_system.ruby.l1_cntrl0.sequencer.mem-master-port::total         3388                       # Cumulative packet size per connected master and slave (bytes)
system.iobus.pkt_size::total                     3388                       # Cumulative packet size per connected master and slave (bytes)
system.iobus.pwrStateResidencyTicks::UNDEFINED    403247500                       # Cumulative time (in ticks) in various power states
system.iobus.reqLayer24.occupancy              843000                       # Layer occupancy (ticks)
system.iobus.reqLayer24.utilization               0.2                       # Layer utilization (%)
system.iobus.respLayer2.occupancy              443000                       # Layer occupancy (ticks)
system.iobus.respLayer2.utilization               0.1                       # Layer utilization (%)
system.iobus.trans_dist::ReadReq                   17                       # Transaction distribution
system.iobus.trans_dist::ReadResp                  17                       # Transaction distribution
system.iobus.trans_dist::WriteReq                 409                       # Transaction distribution
system.iobus.trans_dist::WriteResp                409                       # Transaction distribution
system.mem_ctrls.avgBusLat                    5000.00                       # Average bus latency per DRAM burst
system.mem_ctrls.avgGap                      67172.19                       # Average gap between requests
system.mem_ctrls.avgMemAccLat                36808.14                       # Average memory access latency per DRAM burst
system.mem_ctrls.avgPriority_.ruby.dir_cntrl0::samples      5995.00                       # Average QoS priority value for accepted requests
system.mem_ctrls.avgQLat                     18058.14                       # Average queueing delay per DRAM burst
system.mem_ctrls.avgRdBW                       515.97                       # Average DRAM read bandwidth in MiByte/s
system.mem_ctrls.avgRdBWSys                    516.92                       # Average system read bandwidth in MiByte/s
system.mem_ctrls.avgRdQLen                       1.00                       # Average read queue length when enqueuing
system.mem_ctrls.avgWrBW                       431.70                       # Average achieved write bandwidth in MiByte/s
system.mem_ctrls.avgWrBWSys                    435.66                       # Average system write bandwidth in MiByte/s
system.mem_ctrls.avgWrQLen                      23.27                       # Average write queue length when enqueuing
system.mem_ctrls.busUtil                         7.40                       # Data bus utilization in percentage
system.mem_ctrls.busUtilRead                     4.03                       # Data bus utilization in percentage for reads
system.mem_ctrls.busUtilWrite                    3.37                       # Data bus utilization in percentage for writes
system.mem_ctrls.bw_read::.ruby.dir_cntrl0    516923230                       # Total read bandwidth from this memory (bytes/s)
system.mem_ctrls.bw_read::total             516923230                       # Total read bandwidth from this memory (bytes/s)
system.mem_ctrls.bw_total::.ruby.dir_cntrl0    952586191                       # Total bandwidth to/from this memory (bytes/s)
system.mem_ctrls.bw_total::total            952586191                       # Total bandwidth to/from this memory (bytes/s)
system.mem_ctrls.bw_write::.ruby.dir_cntrl0    435662961                       # Write bandwidth from this memory (bytes/s)
system.mem_ctrls.bw_write::total            435662961                       # Write bandwidth from this memory (bytes/s)
system.mem_ctrls.bytesPerActivate::samples          492                       # Bytes accessed per row activation
system.mem_ctrls.bytesPerActivate::mean    774.504065                       # Bytes accessed per row activation
system.mem_ctrls.bytesPerActivate::gmean   590.769776                       # Bytes accessed per row activation
system.mem_ctrls.bytesPerActivate::stdev   368.761242                       # Bytes accessed per row activation
system.mem_ctrls.bytesPerActivate::0-127           49      9.96%      9.96% # Bytes accessed per row activation
system.mem_ctrls.bytesPerActivate::128-255           36      7.32%     17.28% # Bytes accessed per row activation
system.mem_ctrls.bytesPerActivate::256-383           21      4.27%     21.54% # Bytes accessed per row activation
system.mem_ctrls.bytesPerActivate::384-511           21      4.27%     25.81% # Bytes accessed per row activation
system.mem_ctrls.bytesPerActivate::512-639           14      2.85%     28.66% # Bytes accessed per row activation
system.mem_ctrls.bytesPerActivate::640-767           13      2.64%     31.30% # Bytes accessed per row activation
system.mem_ctrls.bytesPerActivate::768-895           15      3.05%     34.35% # Bytes accessed per row activation
system.mem_ctrls.bytesPerActivate::896-1023           20      4.07%     38.41% # Bytes accessed per row activation
system.mem_ctrls.bytesPerActivate::1024-1151          303     61.59%    100.00% # Bytes accessed per row activation
system.mem_ctrls.bytesPerActivate::total          492                       # Bytes accessed per row activation
system.mem_ctrls.bytesReadDRAM                 208064                       # Total number of bytes read from DRAM
system.mem_ctrls.bytesReadSys                  208448                       # Total read bytes from the system interface side
system.mem_ctrls.bytesReadWrQ                     384                       # Total number of bytes read from write queue
system.mem_ctrls.bytesWritten                  174080                       # Total number of bytes written to DRAM
system.mem_ctrls.bytesWrittenSys               175680                       # Total written bytes from the system interface side
system.mem_ctrls.bytes_read::.ruby.dir_cntrl0       208448                       # Number of bytes read from this memory
system.mem_ctrls.bytes_read::total             208448                       # Number of bytes read from this memory
system.mem_ctrls.bytes_written::.ruby.dir_cntrl0       175680                       # Number of bytes written to this memory
system.mem_ctrls.bytes_written::total          175680                       # Number of bytes written to this memory
system.mem_ctrls.masterReadAccesses::.ruby.dir_cntrl0         3257                       # Per-master read serviced memory accesses
system.mem_ctrls.masterReadAvgLat::.ruby.dir_cntrl0     36740.33                       # Per-master read average memory access latency
system.mem_ctrls.masterReadBytes::.ruby.dir_cntrl0       208064                       # Per-master bytes read from memory
system.mem_ctrls.masterReadRate::.ruby.dir_cntrl0 515970960.762311041355                       # Per-master bytes read from memory rate (Bytes/sec)
system.mem_ctrls.masterReadTotalLat::.ruby.dir_cntrl0    119663250                       # Per-master read total memory access latency
system.mem_ctrls.masterWriteAccesses::.ruby.dir_cntrl0         2745                       # Per-master write serviced memory accesses
system.mem_ctrls.masterWriteAvgLat::.ruby.dir_cntrl0   3269751.82                       # Per-master write average memory access latency
system.mem_ctrls.masterWriteBytes::.ruby.dir_cntrl0       174080                       # Per-master bytes write to memory
system.mem_ctrls.masterWriteRate::.ruby.dir_cntrl0 431695174.799595832825                       # Per-master bytes write to memory rate (Bytes/sec)
system.mem_ctrls.masterWriteTotalLat::.ruby.dir_cntrl0   8975468750                       # Per-master write total memory access latency
system.mem_ctrls.mergedWrBursts                     1                       # Number of DRAM write bursts merged with an existing one
system.mem_ctrls.neitherReadNorWriteReqs            0                       # Number of requests that are neither read nor write
system.mem_ctrls.numRdRetry                         0                       # Number of times read queue was full causing retry
system.mem_ctrls.numReadWriteTurnArounds          170                       # Number of turnarounds from READ to WRITE
system.mem_ctrls.numStayReadState                9155                       # Number of times bus staying in READ state
system.mem_ctrls.numStayWriteState               2569                       # Number of times bus staying in WRITE state
system.mem_ctrls.numWrRetry                         0                       # Number of times write queue was full causing retry
system.mem_ctrls.numWriteReadTurnArounds          170                       # Number of turnarounds from WRITE to READ
system.mem_ctrls.num_reads::.ruby.dir_cntrl0         3257                       # Number of read requests responded to by this memory
system.mem_ctrls.num_reads::total                3257                       # Number of read requests responded to by this memory
system.mem_ctrls.num_writes::.ruby.dir_cntrl0         2745                       # Number of write requests responded to by this memory
system.mem_ctrls.num_writes::total               2745                       # Number of write requests responded to by this memory
system.mem_ctrls.pageHitRate                    91.34                       # Row buffer hit rate, read and write combined
system.mem_ctrls.peakBW                      12800.00                       # Theoretical peak bandwidth in MiByte/s
system.mem_ctrls.perBankRdBursts::0               286                       # Per bank write bursts
system.mem_ctrls.perBankRdBursts::1               259                       # Per bank write bursts
system.mem_ctrls.perBankRdBursts::2               136                       # Per bank write bursts
system.mem_ctrls.perBankRdBursts::3               130                       # Per bank write bursts
system.mem_ctrls.perBankRdBursts::4               265                       # Per bank write bursts
system.mem_ctrls.perBankRdBursts::5               256                       # Per bank write bursts
system.mem_ctrls.perBankRdBursts::6               256                       # Per bank write bursts
system.mem_ctrls.perBankRdBursts::7               256                       # Per bank write bursts
system.mem_ctrls.perBankRdBursts::8               252                       # Per bank write bursts
system.mem_ctrls.perBankRdBursts::9               259                       # Per bank write bursts
system.mem_ctrls.perBankRdBursts::10              252                       # Per bank write bursts
system.mem_ctrls.perBankRdBursts::11              132                       # Per bank write bursts
system.mem_ctrls.perBankRdBursts::12              128                       # Per bank write bursts
system.mem_ctrls.perBankRdBursts::13              128                       # Per bank write bursts
system.mem_ctrls.perBankRdBursts::14              128                       # Per bank write bursts
system.mem_ctrls.perBankRdBursts::15              128                       # Per bank write bursts
system.mem_ctrls.perBankWrBursts::0               275                       # Per bank write bursts
system.mem_ctrls.perBankWrBursts::1               256                       # Per bank write bursts
system.mem_ctrls.perBankWrBursts::2               131                       # Per bank write bursts
system.mem_ctrls.perBankWrBursts::3               130                       # Per bank write bursts
system.mem_ctrls.perBankWrBursts::4               234                       # Per bank write bursts
system.mem_ctrls.perBankWrBursts::5               256                       # Per bank write bursts
system.mem_ctrls.perBankWrBursts::6               182                       # Per bank write bursts
system.mem_ctrls.perBankWrBursts::7               134                       # Per bank write bursts
system.mem_ctrls.perBankWrBursts::8               198                       # Per bank write bursts
system.mem_ctrls.perBankWrBursts::9               130                       # Per bank write bursts
system.mem_ctrls.perBankWrBursts::10              151                       # Per bank write bursts
system.mem_ctrls.perBankWrBursts::11              131                       # Per bank write bursts
system.mem_ctrls.perBankWrBursts::12              128                       # Per bank write bursts
system.mem_ctrls.perBankWrBursts::13              128                       # Per bank write bursts
system.mem_ctrls.perBankWrBursts::14              128                       # Per bank write bursts
system.mem_ctrls.perBankWrBursts::15              128                       # Per bank write bursts
system.mem_ctrls.priorityMaxLatency      0.000148839750                       # per QoS priority maximum request to response latency (s)
system.mem_ctrls.priorityMinLatency      0.000000018750                       # per QoS priority minimum request to response latency (s)
system.mem_ctrls.pwrStateResidencyTicks::UNDEFINED    403247500                       # Cumulative time (in ticks) in various power states
system.mem_ctrls.rdPerTurnAround::samples          170                       # Reads before turning the bus around for writes
system.mem_ctrls.rdPerTurnAround::mean      19.076471                       # Reads before turning the bus around for writes
system.mem_ctrls.rdPerTurnAround::gmean     16.488991                       # Reads before turning the bus around for writes
system.mem_ctrls.rdPerTurnAround::stdev     37.077402                       # Reads before turning the bus around for writes
system.mem_ctrls.rdPerTurnAround::0-15              2      1.18%      1.18% # Reads before turning the bus around for writes
system.mem_ctrls.rdPerTurnAround::16-31           166     97.65%     98.82% # Reads before turning the bus around for writes
system.mem_ctrls.rdPerTurnAround::32-47             1      0.59%     99.41% # Reads before turning the bus around for writes
system.mem_ctrls.rdPerTurnAround::496-511            1      0.59%    100.00% # Reads before turning the bus around for writes
system.mem_ctrls.rdPerTurnAround::total           170                       # Reads before turning the bus around for writes
system.mem_ctrls.rdQLenPdf::0                    3251                       # What read queue length does an incoming req see
system.mem_ctrls.rdQLenPdf::1                       0                       # What read queue length does an incoming req see
system.mem_ctrls.rdQLenPdf::2                       0                       # What read queue length does an incoming req see
system.mem_ctrls.rdQLenPdf::3                       0                       # What read queue length does an incoming req see
system.mem_ctrls.rdQLenPdf::4                       0                       # What read queue length does an incoming req see
system.mem_ctrls.rdQLenPdf::5                       0                       # What read queue length does an incoming req see
system.mem_ctrls.rdQLenPdf::6                       0                       # What read queue length does an incoming req see
system.mem_ctrls.rdQLenPdf::7                       0                       # What read queue length does an incoming req see
system.mem_ctrls.rdQLenPdf::8                       0                       # What read queue length does an incoming req see
system.mem_ctrls.rdQLenPdf::9                       0                       # What read queue length does an incoming req see
system.mem_ctrls.rdQLenPdf::10                      0                       # What read queue length does an incoming req see
system.mem_ctrls.rdQLenPdf::11                      0                       # What read queue length does an incoming req see
system.mem_ctrls.rdQLenPdf::12                      0                       # What read queue length does an incoming req see
system.mem_ctrls.rdQLenPdf::13                      0                       # What read queue length does an incoming req see
system.mem_ctrls.rdQLenPdf::14                      0                       # What read queue length does an incoming req see
system.mem_ctrls.rdQLenPdf::15                      0                       # What read queue length does an incoming req see
system.mem_ctrls.rdQLenPdf::16                      0                       # What read queue length does an incoming req see
system.mem_ctrls.rdQLenPdf::17                      0                       # What read queue length does an incoming req see
system.mem_ctrls.rdQLenPdf::18                      0                       # What read queue length does an incoming req see
system.mem_ctrls.rdQLenPdf::19                      0                       # What read queue length does an incoming req see
system.mem_ctrls.rdQLenPdf::20                      0                       # What read queue length does an incoming req see
system.mem_ctrls.rdQLenPdf::21                      0                       # What read queue length does an incoming req see
system.mem_ctrls.rdQLenPdf::22                      0                       # What read queue length does an incoming req see
system.mem_ctrls.rdQLenPdf::23                      0                       # What read queue length does an incoming req see
system.mem_ctrls.rdQLenPdf::24                      0                       # What read queue length does an incoming req see
system.mem_ctrls.rdQLenPdf::25                      0                       # What read queue length does an incoming req see
system.mem_ctrls.rdQLenPdf::26                      0                       # What read queue length does an incoming req see
system.mem_ctrls.rdQLenPdf::27                      0                       # What read queue length does an incoming req see
system.mem_ctrls.rdQLenPdf::28                      0                       # What read queue length does an incoming req see
system.mem_ctrls.rdQLenPdf::29                      0                       # What read queue length does an incoming req see
system.mem_ctrls.rdQLenPdf::30                      0                       # What read queue length does an incoming req see
system.mem_ctrls.rdQLenPdf::31                      0                       # What read queue length does an incoming req see
system.mem_ctrls.readBursts                      3257                       # Number of DRAM read bursts, including those serviced by the write queue
system.mem_ctrls.readPktSize::0                     0                       # Read request sizes (log2)
system.mem_ctrls.readPktSize::1                     0                       # Read request sizes (log2)
system.mem_ctrls.readPktSize::2                     0                       # Read request sizes (log2)
system.mem_ctrls.readPktSize::3                     0                       # Read request sizes (log2)
system.mem_ctrls.readPktSize::4                     0                       # Read request sizes (log2)
system.mem_ctrls.readPktSize::5                     0                       # Read request sizes (log2)
system.mem_ctrls.readPktSize::6                  3257                       # Read request sizes (log2)
system.mem_ctrls.readReqs                        3257                       # Number of read requests accepted
system.mem_ctrls.readRowHitRate                 91.76                       # Row buffer hit rate for reads
system.mem_ctrls.readRowHits                     2983                       # Number of row buffer hits during reads
system.mem_ctrls.servicedByWrQ                      6                       # Number of DRAM read bursts serviced by the write queue
system.mem_ctrls.totBusLat                   16255000                       # Total ticks spent in databus transfers
system.mem_ctrls.totGap                     403167500                       # Total gap between requests
system.mem_ctrls.totMemAccLat               119663250                       # Total ticks spent from burst creation until serviced by the DRAM
system.mem_ctrls.totQLat                     58707000                       # Total ticks spent queuing
system.mem_ctrls.wrPerTurnAround::samples          170                       # Writes before turning the bus around for reads
system.mem_ctrls.wrPerTurnAround::mean             16                       # Writes before turning the bus around for reads
system.mem_ctrls.wrPerTurnAround::gmean     16.000000                       # Writes before turning the bus around for reads
system.mem_ctrls.wrPerTurnAround::16              170    100.00%    100.00% # Writes before turning the bus around for reads
system.mem_ctrls.wrPerTurnAround::total           170                       # Writes before turning the bus around for reads
system.mem_ctrls.wrQLenPdf::0                       1                       # What write queue length does an incoming req see
system.mem_ctrls.wrQLenPdf::1                       1                       # What write queue length does an incoming req see
system.mem_ctrls.wrQLenPdf::2                       1                       # What write queue length does an incoming req see
system.mem_ctrls.wrQLenPdf::3                       1                       # What write queue length does an incoming req see
system.mem_ctrls.wrQLenPdf::4                       1                       # What write queue length does an incoming req see
system.mem_ctrls.wrQLenPdf::5                       1                       # What write queue length does an incoming req see
system.mem_ctrls.wrQLenPdf::6                       1                       # What write queue length does an incoming req see
system.mem_ctrls.wrQLenPdf::7                       1                       # What write queue length does an incoming req see
system.mem_ctrls.wrQLenPdf::8                       1                       # What write queue length does an incoming req see
system.mem_ctrls.wrQLenPdf::9                       1                       # What write queue length does an incoming req see
system.mem_ctrls.wrQLenPdf::10                      1                       # What write queue length does an incoming req see
system.mem_ctrls.wrQLenPdf::11                      1                       # What write queue length does an incoming req see
system.mem_ctrls.wrQLenPdf::12                      1                       # What write queue length does an incoming req see
system.mem_ctrls.wrQLenPdf::13                      1                       # What write queue length does an incoming req see
system.mem_ctrls.wrQLenPdf::14                      1                       # What write queue length does an incoming req see
system.mem_ctrls.wrQLenPdf::15                      1                       # What write queue length does an incoming req see
system.mem_ctrls.wrQLenPdf::16                      1                       # What write queue length does an incoming req see
system.mem_ctrls.wrQLenPdf::17                    171                       # What write queue length does an incoming req see
system.mem_ctrls.wrQLenPdf::18                    171                       # What write queue length does an incoming req see
system.mem_ctrls.wrQLenPdf::19                    171                       # What write queue length does an incoming req see
system.mem_ctrls.wrQLenPdf::20                    171                       # What write queue length does an incoming req see
system.mem_ctrls.wrQLenPdf::21                    171                       # What write queue length does an incoming req see
system.mem_ctrls.wrQLenPdf::22                    171                       # What write queue length does an incoming req see
system.mem_ctrls.wrQLenPdf::23                    171                       # What write queue length does an incoming req see
system.mem_ctrls.wrQLenPdf::24                    170                       # What write queue length does an incoming req see
system.mem_ctrls.wrQLenPdf::25                    170                       # What write queue length does an incoming req see
system.mem_ctrls.wrQLenPdf::26                    170                       # What write queue length does an incoming req see
system.mem_ctrls.wrQLenPdf::27                    170                       # What write queue length does an incoming req see
system.mem_ctrls.wrQLenPdf::28                    170                       # What write queue length does an incoming req see
system.mem_ctrls.wrQLenPdf::29                    170                       # What write queue length does an incoming req see
system.mem_ctrls.wrQLenPdf::30                    170                       # What write queue length does an incoming req see
system.mem_ctrls.wrQLenPdf::31                    170                       # What write queue length does an incoming req see
system.mem_ctrls.wrQLenPdf::32                    170                       # What write queue length does an incoming req see
system.mem_ctrls.wrQLenPdf::33                      0                       # What write queue length does an incoming req see
system.mem_ctrls.wrQLenPdf::34                      0                       # What write queue length does an incoming req see
system.mem_ctrls.wrQLenPdf::35                      0                       # What write queue length does an incoming req see
system.mem_ctrls.wrQLenPdf::36                      0                       # What write queue length does an incoming req see
system.mem_ctrls.wrQLenPdf::37                      0                       # What write queue length does an incoming req see
system.mem_ctrls.wrQLenPdf::38                      0                       # What write queue length does an incoming req see
system.mem_ctrls.wrQLenPdf::39                      0                       # What write queue length does an incoming req see
system.mem_ctrls.wrQLenPdf::40                      0                       # What write queue length does an incoming req see
system.mem_ctrls.wrQLenPdf::41                      0                       # What write queue length does an incoming req see
system.mem_ctrls.wrQLenPdf::42                      0                       # What write queue length does an incoming req see
system.mem_ctrls.wrQLenPdf::43                      0                       # What write queue length does an incoming req see
system.mem_ctrls.wrQLenPdf::44                      0                       # What write queue length does an incoming req see
system.mem_ctrls.wrQLenPdf::45                      0                       # What write queue length does an incoming req see
system.mem_ctrls.wrQLenPdf::46                      0                       # What write queue length does an incoming req see
system.mem_ctrls.wrQLenPdf::47                      0                       # What write queue length does an incoming req see
system.mem_ctrls.wrQLenPdf::48                      0                       # What write queue length does an incoming req see
system.mem_ctrls.wrQLenPdf::49                      0                       # What write queue length does an incoming req see
system.mem_ctrls.wrQLenPdf::50                      0                       # What write queue length does an incoming req see
system.mem_ctrls.wrQLenPdf::51                      0                       # What write queue length does an incoming req see
system.mem_ctrls.wrQLenPdf::52                      0                       # What write queue length does an incoming req see
system.mem_ctrls.wrQLenPdf::53                      0                       # What write queue length does an incoming req see
system.mem_ctrls.wrQLenPdf::54                      0                       # What write queue length does an incoming req see
system.mem_ctrls.wrQLenPdf::55                      0                       # What write queue length does an incoming req see
system.mem_ctrls.wrQLenPdf::56                      0                       # What write queue length does an incoming req see
system.mem_ctrls.wrQLenPdf::57                      0                       # What write queue length does an incoming req see
system.mem_ctrls.wrQLenPdf::58                      0                       # What write queue length does an incoming req see
system.mem_ctrls.wrQLenPdf::59                      0                       # What write queue length does an incoming req see
system.mem_ctrls.wrQLenPdf::60                      0                       # What write queue length does an incoming req see
system.mem_ctrls.wrQLenPdf::61                      0                       # What write queue length does an incoming req see
system.mem_ctrls.wrQLenPdf::62                      0                       # What write queue length does an incoming req see
system.mem_ctrls.wrQLenPdf::63                      0                       # What write queue length does an incoming req see
system.mem_ctrls.writeBursts                     2745                       # Number of DRAM write bursts, including those merged in the write queue
system.mem_ctrls.writePktSize::0                    0                       # Write request sizes (log2)
system.mem_ctrls.writePktSize::1                    0                       # Write request sizes (log2)
system.mem_ctrls.writePktSize::2                    0                       # Write request sizes (log2)
system.mem_ctrls.writePktSize::3                    0                       # Write request sizes (log2)
system.mem_ctrls.writePktSize::4                    0                       # Write request sizes (log2)
system.mem_ctrls.writePktSize::5                    0                       # Write request sizes (log2)
system.mem_ctrls.writePktSize::6                 2745                       # Write request sizes (log2)
system.mem_ctrls.writeReqs                       2745                       # Number of write requests accepted
system.mem_ctrls.writeRowHitRate                90.85                       # Row buffer hit rate for writes
system.mem_ctrls.writeRowHits                    2493                       # Number of row buffer hits during writes
system.mem_ctrls_0.actBackEnergy             57665760                       # Energy for active background per rank (pJ)
system.mem_ctrls_0.actEnergy                  1970640                       # Energy for activate commands per rank (pJ)
system.mem_ctrls_0.actPowerDownEnergy        61887750                       # Energy for active power-down per rank (pJ)
system.mem_ctrls_0.averagePower            545.061309                       # Core power per rank (mW)
system.mem_ctrls_0.memoryStateTime::IDLE      2813000                       # Time in different power states
system.mem_ctrls_0.memoryStateTime::REF      11180000                       # Time in different power states
system.mem_ctrls_0.memoryStateTime::SREF     65060500                       # Time in different power states
system.mem_ctrls_0.memoryStateTime::PRE_PDN     71044750                       # Time in different power states
system.mem_ctrls_0.memoryStateTime::ACT     117439000                       # Time in different power states
system.mem_ctrls_0.memoryStateTime::ACT_PDN    135710250                       # Time in different power states
system.mem_ctrls_0.preBackEnergy              1816320                       # Energy for precharge background per rank (pJ)
system.mem_ctrls_0.preEnergy                  1039830                       # Energy for precharge commands per rank (pJ)
system.mem_ctrls_0.prePowerDownEnergy        27278400                       # Energy for precharge power-down per rank (pJ)
system.mem_ctrls_0.readEnergy                13166160                       # Energy for read commands per rank (pJ)
system.mem_ctrls_0.refreshEnergy         26429520.000000                       # Energy for refresh commands per rank (pJ)
system.mem_ctrls_0.selfRefreshEnergy         20090220                       # Energy for self refresh per rank (pJ)
system.mem_ctrls_0.totalEnergy              219794610                       # Total energy per rank (pJ)
system.mem_ctrls_0.totalIdleTime            271815500                       # Total Idle time Per DRAM Rank
system.mem_ctrls_0.writeEnergy                8341560                       # Energy for write commands per rank (pJ)
system.mem_ctrls_1.actBackEnergy             57546060                       # Energy for active background per rank (pJ)
system.mem_ctrls_1.actEnergy                  1563660                       # Energy for activate commands per rank (pJ)
system.mem_ctrls_1.actPowerDownEnergy        65712450                       # Energy for active power-down per rank (pJ)
system.mem_ctrls_1.averagePower            551.173014                       # Core power per rank (mW)
system.mem_ctrls_1.memoryStateTime::IDLE      3066250                       # Time in different power states
system.mem_ctrls_1.memoryStateTime::REF      12480000                       # Time in different power states
system.mem_ctrls_1.memoryStateTime::SREF     25775750                       # Time in different power states
system.mem_ctrls_1.memoryStateTime::PRE_PDN    102116750                       # Time in different power states
system.mem_ctrls_1.memoryStateTime::ACT     115685500                       # Time in different power states
system.mem_ctrls_1.memoryStateTime::ACT_PDN    144123250                       # Time in different power states
system.mem_ctrls_1.preBackEnergy              1937280                       # Energy for precharge background per rank (pJ)
system.mem_ctrls_1.preEnergy                   827310                       # Energy for precharge commands per rank (pJ)
system.mem_ctrls_1.prePowerDownEnergy        39214560                       # Energy for precharge power-down per rank (pJ)
system.mem_ctrls_1.readEnergy                10045980                       # Energy for read commands per rank (pJ)
system.mem_ctrls_1.refreshEnergy         29502720.000000                       # Energy for refresh commands per rank (pJ)
system.mem_ctrls_1.selfRefreshEnergy         10052280                       # Energy for self refresh per rank (pJ)
system.mem_ctrls_1.totalEnergy              222259140                       # Total energy per rank (pJ)
system.mem_ctrls_1.totalIdleTime            271979250                       # Total Idle time Per DRAM Rank
system.mem_ctrls_1.writeEnergy                5856840                       # Energy for write commands per rank (pJ)
system.pwrStateResidencyTicks::UNDEFINED    403247500                       # Cumulative time (in ticks) in various power states
system.ruby.Directory.incomplete_times_seqr         3256                      
system.ruby.Directory.miss_latency_hist_seqr.first_response_to_completion::bucket_size           16                      
system.ruby.Directory.miss_latency_hist_seqr.first_response_to_completion::max_bucket          159                      
system.ruby.Directory.miss_latency_hist_seqr.first_response_to_completion::samples            1                      
system.ruby.Directory.miss_latency_hist_seqr.first_response_to_completion::mean          141                      
system.ruby.Directory.miss_latency_hist_seqr.first_response_to_completion::gmean   141.000000                      
system.ruby.Directory.miss_latency_hist_seqr.first_response_to_completion::stdev          nan                      
system.ruby.Directory.miss_latency_hist_seqr.first_response_to_completion |           0      0.00%      0.00% |           0      0.00%      0.00% |           0      0.00%      0.00% |           0      0.00%      0.00% |           0      0.00%      0.00% |           0      0.00%      0.00% |           0      0.00%      0.00% |           0      0.00%      0.00% |           1    100.00%    100.00% |           0      0.00%    100.00%
system.ruby.Directory.miss_latency_hist_seqr.first_response_to_completion::total            1                      
system.ruby.Directory.miss_latency_hist_seqr.forward_to_first_response::bucket_size            1                      
system.ruby.Directory.miss_latency_hist_seqr.forward_to_first_response::max_bucket            9                      
system.ruby.Directory.miss_latency_hist_seqr.forward_to_first_response::samples            1                      
system.ruby.Directory.miss_latency_hist_seqr.forward_to_first_response::stdev          nan                      
system.ruby.Directory.miss_latency_hist_seqr.forward_to_first_response |           1    100.00%    100.00% |           0      0.00%    100.00% |           0      0.00%    100.00% |           0      0.00%    100.00% |           0      0.00%    100.00% |           0      0.00%    100.00% |           0      0.00%    100.00% |           0      0.00%    100.00% |           0      0.00%    100.00% |           0      0.00%    100.00%
system.ruby.Directory.miss_latency_hist_seqr.forward_to_first_response::total            1                      
system.ruby.Directory.miss_latency_hist_seqr.initial_to_forward::bucket_size            1                      
system.ruby.Directory.miss_latency_hist_seqr.initial_to_forward::max_bucket            9                      
system.ruby.Directory.miss_latency_hist_seqr.initial_to_forward::samples            1                      
system.ruby.Directory.miss_latency_hist_seqr.initial_to_forward::stdev          nan                      
system.ruby.Directory.miss_latency_hist_seqr.initial_to_forward |           1    100.00%    100.00% |           0      0.00%    100.00% |           0      0.00%    100.00% |           0      0.00%    100.00% |           0      0.00%    100.00% |           0      0.00%    100.00% |           0      0.00%    100.00% |           0      0.00%    100.00% |           0      0.00%    100.00% |           0      0.00%    100.00%
system.ruby.Directory.miss_latency_hist_seqr.initial_to_forward::total            1                      
system.ruby.Directory.miss_latency_hist_seqr.issue_to_initial_request::bucket_size            1                      
system.ruby.Directory.miss_latency_hist_seqr.issue_to_initial_request::max_bucket            9                      
system.ruby.Directory.miss_latency_hist_seqr.issue_to_initial_request::samples            1                      
system.ruby.Directory.miss_latency_hist_seqr.issue_to_initial_request::stdev          nan                      
system.ruby.Directory.miss_latency_hist_seqr.issue_to_initial_request |           1    100.00%    100.00% |           0      0.00%    100.00% |           0      0.00%    100.00% |           0      0.00%    100.00% |           0      0.00%    100.00% |           0      0.00%    100.00% |           0      0.00%    100.00% |           0      0.00%    100.00% |           0      0.00%    100.00% |           0      0.00%    100.00%
system.ruby.Directory.miss_latency_hist_seqr.issue_to_initial_request::total            1                      
system.ruby.Directory.miss_mach_latency_hist_seqr::bucket_size          256                      
system.ruby.Directory.miss_mach_latency_hist_seqr::max_bucket         2559                      
system.ruby.Directory.miss_mach_latency_hist_seqr::samples         3257                      
system.ruby.Directory.miss_mach_latency_hist_seqr::mean   135.269266                      
system.ruby.Directory.miss_mach_latency_hist_seqr::gmean   122.497108                      
system.ruby.Directory.miss_mach_latency_hist_seqr::stdev   104.970923                      
system.ruby.Directory.miss_mach_latency_hist_seqr |        3044     93.46%     93.46% |         158      4.85%     98.31% |          37      1.14%     99.45% |           6      0.18%     99.63% |           9      0.28%     99.91% |           3      0.09%    100.00% |           0      0.00%    100.00% |           0      0.00%    100.00% |           0      0.00%    100.00% |           0      0.00%    100.00%
system.ruby.Directory.miss_mach_latency_hist_seqr::total         3257                      
system.ruby.Directory_Controller.GETX            3257      0.00%      0.00%
system.ruby.Directory_Controller.I.GETX          3257      0.00%      0.00%
system.ruby.Directory_Controller.IM.Memory_Data         3257      0.00%      0.00%
system.ruby.Directory_Controller.M.PUTX          2745      0.00%      0.00%
system.ruby.Directory_Controller.MI.Memory_Ack         2745      0.00%      0.00%
system.ruby.Directory_Controller.Memory_Ack         2745      0.00%      0.00%
system.ruby.Directory_Controller.Memory_Data         3257      0.00%      0.00%
system.ruby.Directory_Controller.PUTX            2745      0.00%      0.00%
system.ruby.IFETCH.Directory.miss_type_mach_latency_hist_seqr::bucket_size          256                      
system.ruby.IFETCH.Directory.miss_type_mach_latency_hist_seqr::max_bucket         2559                      
system.ruby.IFETCH.Directory.miss_type_mach_latency_hist_seqr::samples          145                      
system.ruby.IFETCH.Directory.miss_type_mach_latency_hist_seqr::mean   144.289655                      
system.ruby.IFETCH.Directory.miss_type_mach_latency_hist_seqr::gmean   121.883689                      
system.ruby.IFETCH.Directory.miss_type_mach_latency_hist_seqr::stdev   168.044881                      
system.ruby.IFETCH.Directory.miss_type_mach_latency_hist_seqr |         136     93.79%     93.79% |           6      4.14%     97.93% |           0      0.00%     97.93% |           0      0.00%     97.93% |           2      1.38%     99.31% |           1      0.69%    100.00% |           0      0.00%    100.00% |           0      0.00%    100.00% |           0      0.00%    100.00% |           0      0.00%    100.00%
system.ruby.IFETCH.Directory.miss_type_mach_latency_hist_seqr::total          145                      
system.ruby.IFETCH.hit_latency_hist_seqr::bucket_size            1                      
system.ruby.IFETCH.hit_latency_hist_seqr::max_bucket            9                      
system.ruby.IFETCH.hit_latency_hist_seqr::samples        99856                      
system.ruby.IFETCH.hit_latency_hist_seqr::mean            1                      
system.ruby.IFETCH.hit_latency_hist_seqr::gmean            1                      
system.ruby.IFETCH.hit_latency_hist_seqr |           0      0.00%      0.00% |       99856    100.00%    100.00% |           0      0.00%    100.00% |           0      0.00%    100.00% |           0      0.00%    100.00% |           0      0.00%    100.00% |           0      0.00%    100.00% |           0      0.00%    100.00% |           0      0.00%    100.00% |           0      0.00%    100.00%
system.ruby.IFETCH.hit_latency_hist_seqr::total        99856                      
system.ruby.IFETCH.latency_hist_seqr::bucket_size          256                      
system.ruby.IFETCH.latency_hist_seqr::max_bucket         2559                      
system.ruby.IFETCH.latency_hist_seqr::samples       100001                      
system.ruby.IFETCH.latency_hist_seqr::mean     1.207768                      
system.ruby.IFETCH.latency_hist_seqr::gmean     1.006989                      
system.ruby.IFETCH.latency_hist_seqr::stdev     8.390018                      
system.ruby.IFETCH.latency_hist_seqr     |       99992     99.99%     99.99% |           6      0.01%    100.00% |           0      0.00%    100.00% |           0      0.00%    100.00% |           2      0.00%    100.00% |           1      0.00%    100.00% |           0      0.00%    100.00% |           0      0.00%    100.00% |           0      0.00%    100.00% |           0      0.00%    100.00%
system.ruby.IFETCH.latency_hist_seqr::total       100001                      
system.ruby.IFETCH.miss_latency_hist_seqr::bucket_size          256                      
system.ruby.IFETCH.miss_latency_hist_seqr::max_bucket         2559                      
system.ruby.IFETCH.miss_latency_hist_seqr::samples          145                      
system.ruby.IFETCH.miss_latency_hist_seqr::mean   144.289655                      
system.ruby.IFETCH.miss_latency_hist_seqr::gmean   121.883689                      
system.ruby.IFETCH.miss_latency_hist_seqr::stdev   168.044881                      
system.ruby.IFETCH.miss_latency_hist_seqr |         136     93.79%     93.79% |           6      4.14%     97.93% |           0      0.00%     97.93% |           0      0.00%     97.93% |           2      1.38%     99.31% |           1      0.69%    100.00% |           0      0.00%    100.00% |           0      0.00%    100.00% |           0      0.00%    100.00% |           0      0.00%    100.00%
system.ruby.IFETCH.miss_latency_hist_seqr::total          145                      
system.ruby.L1Cache_Controller.Data              3257      0.00%      0.00%
system.ruby.L1Cache_Controller.I.Ifetch           145      0.00%      0.00%
system.ruby.L1Cache_Controller.I.Load              32      0.00%      0.00%
system.ruby.L1Cache_Controller.I.Store           3080      0.00%      0.00%
system.ruby.L1Cache_Controller.IM.Data           3080      0.00%      0.00%
system.ruby.L1Cache_Controller.IS.Data            177      0.00%      0.00%
system.ruby.L1Cache_Controller.Ifetch          100001      0.00%      0.00%
system.ruby.L1Cache_Controller.Load              9756      0.00%      0.00%
system.ruby.L1Cache_Controller.M.Ifetch         99856      0.00%      0.00%
system.ruby.L1Cache_Controller.M.Load            9724      0.00%      0.00%
system.ruby.L1Cache_Controller.M.Replacement         2745      0.00%      0.00%
system.ruby.L1Cache_Controller.M.Store          26180      0.00%      0.00%
system.ruby.L1Cache_Controller.MI.Writeback_Ack         2745      0.00%      0.00%
system.ruby.L1Cache_Controller.Replacement         2745      0.00%      0.00%
system.ruby.L1Cache_Controller.Store            29260      0.00%      0.00%
system.ruby.L1Cache_Controller.Writeback_Ack         2745      0.00%      0.00%
system.ruby.LD.Directory.miss_type_mach_latency_hist_seqr::bucket_size          128                      
system.ruby.LD.Directory.miss_type_mach_latency_hist_seqr::max_bucket         1279                      
system.ruby.LD.Directory.miss_type_mach_latency_hist_seqr::samples           32                      
system.ruby.LD.Directory.miss_type_mach_latency_hist_seqr::mean   184.968750                      
system.ruby.LD.Directory.miss_type_mach_latency_hist_seqr::gmean   131.448326                      
system.ruby.LD.Directory.miss_type_mach_latency_hist_seqr::stdev   267.854015                      
system.ruby.LD.Directory.miss_type_mach_latency_hist_seqr |          18     56.25%     56.25% |          12     37.50%     93.75% |           0      0.00%     93.75% |           0      0.00%     93.75% |           0      0.00%     93.75% |           0      0.00%     93.75% |           0      0.00%     93.75% |           0      0.00%     93.75% |           0      0.00%     93.75% |           2      6.25%    100.00%
system.ruby.LD.Directory.miss_type_mach_latency_hist_seqr::total           32                      
system.ruby.LD.hit_latency_hist_seqr::bucket_size            1                      
system.ruby.LD.hit_latency_hist_seqr::max_bucket            9                      
system.ruby.LD.hit_latency_hist_seqr::samples         9724                      
system.ruby.LD.hit_latency_hist_seqr::mean            1                      
system.ruby.LD.hit_latency_hist_seqr::gmean            1                      
system.ruby.LD.hit_latency_hist_seqr     |           0      0.00%      0.00% |        9724    100.00%    100.00% |           0      0.00%    100.00% |           0      0.00%    100.00% |           0      0.00%    100.00% |           0      0.00%    100.00% |           0      0.00%    100.00% |           0      0.00%    100.00% |           0      0.00%    100.00% |           0      0.00%    100.00%
system.ruby.LD.hit_latency_hist_seqr::total         9724                      
system.ruby.LD.latency_hist_seqr::bucket_size          128                      
system.ruby.LD.latency_hist_seqr::max_bucket         1279                      
system.ruby.LD.latency_hist_seqr::samples         9756                      
system.ruby.LD.latency_hist_seqr::mean       1.603424                      
system.ruby.LD.latency_hist_seqr::gmean      1.016131                      
system.ruby.LD.latency_hist_seqr::stdev     18.402612                      
system.ruby.LD.latency_hist_seqr         |        9742     99.86%     99.86% |          12      0.12%     99.98% |           0      0.00%     99.98% |           0      0.00%     99.98% |           0      0.00%     99.98% |           0      0.00%     99.98% |           0      0.00%     99.98% |           0      0.00%     99.98% |           0      0.00%     99.98% |           2      0.02%    100.00%
system.ruby.LD.latency_hist_seqr::total          9756                      
system.ruby.LD.miss_latency_hist_seqr::bucket_size          128                      
system.ruby.LD.miss_latency_hist_seqr::max_bucket         1279                      
system.ruby.LD.miss_latency_hist_seqr::samples           32                      
system.ruby.LD.miss_latency_hist_seqr::mean   184.968750                      
system.ruby.LD.miss_latency_hist_seqr::gmean   131.448326                      
system.ruby.LD.miss_latency_hist_seqr::stdev   267.854015                      
system.ruby.LD.miss_latency_hist_seqr    |          18     56.25%     56.25% |          12     37.50%     93.75% |           0      0.00%     93.75% |           0      0.00%     93.75% |           0      0.00%     93.75% |           0      0.00%     93.75% |           0      0.00%     93.75% |           0      0.00%     93.75% |           0      0.00%     93.75% |           2      6.25%    100.00%
system.ruby.LD.miss_latency_hist_seqr::total           32                      
system.ruby.Load_Linked.Directory.miss_type_mach_latency_hist_seqr::bucket_size           16                      
system.ruby.Load_Linked.Directory.miss_type_mach_latency_hist_seqr::max_bucket          159                      
system.ruby.Load_Linked.Directory.miss_type_mach_latency_hist_seqr::samples            1                      
system.ruby.Load_Linked.Directory.miss_type_mach_latency_hist_seqr::mean          108                      
system.ruby.Load_Linked.Directory.miss_type_mach_latency_hist_seqr::gmean   108.000000                      
system.ruby.Load_Linked.Directory.miss_type_mach_latency_hist_seqr::stdev          nan                      
system.ruby.Load_Linked.Directory.miss_type_mach_latency_hist_seqr |           0      0.00%      0.00% |           0      0.00%      0.00% |           0      0.00%      0.00% |           0      0.00%      0.00% |           0      0.00%      0.00% |           0      0.00%      0.00% |           1    100.00%    100.00% |           0      0.00%    100.00% |           0      0.00%    100.00% |           0      0.00%    100.00%
system.ruby.Load_Linked.Directory.miss_type_mach_latency_hist_seqr::total            1                      
system.ruby.Load_Linked.hit_latency_hist_seqr::bucket_size            1                      
system.ruby.Load_Linked.hit_latency_hist_seqr::max_bucket            9                      
system.ruby.Load_Linked.hit_latency_hist_seqr::samples            5                      
system.ruby.Load_Linked.hit_latency_hist_seqr::mean            1                      
system.ruby.Load_Linked.hit_latency_hist_seqr::gmean            1                      
system.ruby.Load_Linked.hit_latency_hist_seqr |           0      0.00%      0.00% |           5    100.00%    100.00% |           0      0.00%    100.00% |           0      0.00%    100.00% |           0      0.00%    100.00% |           0      0.00%    100.00% |           0      0.00%    100.00% |           0      0.00%    100.00% |           0      0.00%    100.00% |           0      0.00%    100.00%
system.ruby.Load_Linked.hit_latency_hist_seqr::total            5                      
system.ruby.Load_Linked.latency_hist_seqr::bucket_size           16                      
system.ruby.Load_Linked.latency_hist_seqr::max_bucket          159                      
system.ruby.Load_Linked.latency_hist_seqr::samples            6                      
system.ruby.Load_Linked.latency_hist_seqr::mean    18.833333                      
system.ruby.Load_Linked.latency_hist_seqr::gmean     2.182247                      
system.ruby.Load_Linked.latency_hist_seqr::stdev    43.682567                      
system.ruby.Load_Linked.latency_hist_seqr |           5     83.33%     83.33% |           0      0.00%     83.33% |           0      0.00%     83.33% |           0      0.00%     83.33% |           0      0.00%     83.33% |           0      0.00%     83.33% |           1     16.67%    100.00% |           0      0.00%    100.00% |           0      0.00%    100.00% |           0      0.00%    100.00%
system.ruby.Load_Linked.latency_hist_seqr::total            6                      
system.ruby.Load_Linked.miss_latency_hist_seqr::bucket_size           16                      
system.ruby.Load_Linked.miss_latency_hist_seqr::max_bucket          159                      
system.ruby.Load_Linked.miss_latency_hist_seqr::samples            1                      
system.ruby.Load_Linked.miss_latency_hist_seqr::mean          108                      
system.ruby.Load_Linked.miss_latency_hist_seqr::gmean   108.000000                      
system.ruby.Load_Linked.miss_latency_hist_seqr::stdev          nan                      
system.ruby.Load_Linked.miss_latency_hist_seqr |           0      0.00%      0.00% |           0      0.00%      0.00% |           0      0.00%      0.00% |           0      0.00%      0.00% |           0      0.00%      0.00% |           0      0.00%      0.00% |           1    100.00%    100.00% |           0      0.00%    100.00% |           0      0.00%    100.00% |           0      0.00%    100.00%
system.ruby.Load_Linked.miss_latency_hist_seqr::total            1                      
system.ruby.ST.Directory.miss_type_mach_latency_hist_seqr::bucket_size          256                      
system.ruby.ST.Directory.miss_type_mach_latency_hist_seqr::max_bucket         2559                      
system.ruby.ST.Directory.miss_type_mach_latency_hist_seqr::samples         3079                      
system.ruby.ST.Directory.miss_type_mach_latency_hist_seqr::mean   134.336798                      
system.ruby.ST.Directory.miss_type_mach_latency_hist_seqr::gmean   122.441304                      
system.ruby.ST.Directory.miss_type_mach_latency_hist_seqr::stdev    97.886559                      
system.ruby.ST.Directory.miss_type_mach_latency_hist_seqr |        2877     93.44%     93.44% |         152      4.94%     98.38% |          37      1.20%     99.58% |           6      0.19%     99.77% |           5      0.16%     99.94% |           2      0.06%    100.00% |           0      0.00%    100.00% |           0      0.00%    100.00% |           0      0.00%    100.00% |           0      0.00%    100.00%
system.ruby.ST.Directory.miss_type_mach_latency_hist_seqr::total         3079                      
system.ruby.ST.hit_latency_hist_seqr::bucket_size            1                      
system.ruby.ST.hit_latency_hist_seqr::max_bucket            9                      
system.ruby.ST.hit_latency_hist_seqr::samples        26169                      
system.ruby.ST.hit_latency_hist_seqr::mean            1                      
system.ruby.ST.hit_latency_hist_seqr::gmean            1                      
system.ruby.ST.hit_latency_hist_seqr     |           0      0.00%      0.00% |       26169    100.00%    100.00% |           0      0.00%    100.00% |           0      0.00%    100.00% |           0      0.00%    100.00% |           0      0.00%    100.00% |           0      0.00%    100.00% |           0      0.00%    100.00% |           0      0.00%    100.00% |           0      0.00%    100.00%
system.ruby.ST.hit_latency_hist_seqr::total        26169                      
system.ruby.ST.latency_hist_seqr::bucket_size          256                      
system.ruby.ST.latency_hist_seqr::max_bucket         2559                      
system.ruby.ST.latency_hist_seqr::samples        29248                      
system.ruby.ST.latency_hist_seqr::mean      15.036652                      
system.ruby.ST.latency_hist_seqr::gmean      1.658825                      
system.ruby.ST.latency_hist_seqr::stdev     51.798004                      
system.ruby.ST.latency_hist_seqr         |       29046     99.31%     99.31% |         152      0.52%     99.83% |          37      0.13%     99.96% |           6      0.02%     99.98% |           5      0.02%     99.99% |           2      0.01%    100.00% |           0      0.00%    100.00% |           0      0.00%    100.00% |           0      0.00%    100.00% |           0      0.00%    100.00%
system.ruby.ST.latency_hist_seqr::total         29248                      
system.ruby.ST.miss_latency_hist_seqr::bucket_size          256                      
system.ruby.ST.miss_latency_hist_seqr::max_bucket         2559                      
system.ruby.ST.miss_latency_hist_seqr::samples         3079                      
system.ruby.ST.miss_latency_hist_seqr::mean   134.336798                      
system.ruby.ST.miss_latency_hist_seqr::gmean   122.441304                      
system.ruby.ST.miss_latency_hist_seqr::stdev    97.886559                      
system.ruby.ST.miss_latency_hist_seqr    |        2877     93.44%     93.44% |         152      4.94%     98.38% |          37      1.20%     99.58% |           6      0.19%     99.77% |           5      0.16%     99.94% |           2      0.06%    100.00% |           0      0.00%    100.00% |           0      0.00%    100.00% |           0      0.00%    100.00% |           0      0.00%    100.00%
system.ruby.ST.miss_latency_hist_seqr::total         3079                      
system.ruby.Store_Conditional.hit_latency_hist_seqr::bucket_size            1                      
system.ruby.Store_Conditional.hit_latency_hist_seqr::max_bucket            9                      
system.ruby.Store_Conditional.hit_latency_hist_seqr::samples            6                      
system.ruby.Store_Conditional.hit_latency_hist_seqr::mean            1                      
system.ruby.Store_Conditional.hit_latency_hist_seqr::gmean            1                      
system.ruby.Store_Conditional.hit_latency_hist_seqr |           0      0.00%      0.00% |           6    100.00%    100.00% |           0      0.00%    100.00% |           0      0.00%    100.00% |           0      0.00%    100.00% |           0      0.00%    100.00% |           0      0.00%    100.00% |           0      0.00%    100.00% |           0      0.00%    100.00% |           0      0.00%    100.00%
system.ruby.Store_Conditional.hit_latency_hist_seqr::total            6                      
system.ruby.Store_Conditional.latency_hist_seqr::bucket_size            1                      
system.ruby.Store_Conditional.latency_hist_seqr::max_bucket            9                      
system.ruby.Store_Conditional.latency_hist_seqr::samples            6                      
system.ruby.Store_Conditional.latency_hist_seqr::mean            1                      
system.ruby.Store_Conditional.latency_hist_seqr::gmean            1                      
system.ruby.Store_Conditional.latency_hist_seqr |           0      0.00%      0.00% |           6    100.00%    100.00% |           0      0.00%    100.00% |           0      0.00%    100.00% |           0      0.00%    100.00% |           0      0.00%    100.00% |           0      0.00%    100.00% |           0      0.00%    100.00% |           0      0.00%    100.00% |           0      0.00%    100.00%
system.ruby.Store_Conditional.latency_hist_seqr::total            6                      
system.ruby.clk_domain.clock                      500                       # Clock period in ticks
system.ruby.delayHist::bucket_size                  1                       # delay histogram for all message
system.ruby.delayHist::max_bucket                   9                       # delay histogram for all message
system.ruby.delayHist::samples                   6002                       # delay histogram for all message
system.ruby.delayHist                    |        6002    100.00%    100.00% |           0      0.00%    100.00% |           0      0.00%    100.00% |           0      0.00%    100.00% |           0      0.00%    100.00% |           0      0.00%    100.00% |           0      0.00%    100.00% |           0      0.00%    100.00% |           0      0.00%    100.00% |           0      0.00%    100.00% # delay histogram for all message
[...]
system.ruby.network.int_link_buffers32.avg_buf_msgs     0.007442                       # Average number of messages in buffer
system.ruby.network.int_link_buffers32.avg_stall_time  4598.381888                       # Average number of cycles messages are stalled in this MB
system.ruby.network.msg_byte.Control            78168                      
system.ruby.network.msg_byte.Data              592920                      
system.ruby.network.msg_byte.Response_Data       703512                      
system.ruby.network.msg_byte.Writeback_Control        65880                      
system.ruby.network.msg_count.Control            9771                      
system.ruby.network.msg_count.Data               8235                      
system.ruby.network.msg_count.Response_Data         9771                      
system.ruby.network.msg_count.Writeback_Control         8235                      
system.ruby.network.pwrStateResidencyTicks::UNDEFINED    403247500                       # Cumulative time (in ticks) in various power states
system.ruby.network.routers0.msg_bytes.Control::2        26056                      
system.ruby.network.routers0.msg_bytes.Data::2       197640                      
system.ruby.network.routers0.msg_bytes.Response_Data::4       234504                      
system.ruby.network.routers0.msg_bytes.Writeback_Control::3        21960                      
system.ruby.network.routers0.msg_count.Control::2         3257                      
system.ruby.network.routers0.msg_count.Data::2         2745                      
system.ruby.network.routers0.msg_count.Response_Data::4         3257                      
system.ruby.network.routers0.msg_count.Writeback_Control::3         2745                      
system.ruby.network.routers0.percent_links_utilized     1.860520                      
system.ruby.network.routers0.port_buffers03.avg_buf_msgs     0.003404                       # Average number of messages in buffer
system.ruby.network.routers0.port_buffers03.avg_stall_time  2994.814599                       # Average number of cycles messages are stalled in this MB
system.ruby.network.routers0.port_buffers04.avg_buf_msgs     0.004038                       # Average number of messages in buffer
system.ruby.network.routers0.port_buffers04.avg_stall_time  2999.479228                       # Average number of cycles messages are stalled in this MB
system.ruby.network.routers0.port_buffers07.avg_buf_msgs     0.021057                       # Average number of messages in buffer
system.ruby.network.routers0.port_buffers07.avg_stall_time  3098.407927                       # Average number of cycles messages are stalled in this MB
system.ruby.network.routers0.pwrStateResidencyTicks::UNDEFINED    403247500                       # Cumulative time (in ticks) in various power states
system.ruby.network.routers0.throttle0.link_utilization     1.987489                      
system.ruby.network.routers0.throttle0.msg_bytes.Response_Data::4       234504                      
system.ruby.network.routers0.throttle0.msg_bytes.Writeback_Control::3        21960                      
system.ruby.network.routers0.throttle0.msg_count.Response_Data::4         3257                      
system.ruby.network.routers0.throttle0.msg_count.Writeback_Control::3         2745                      
system.ruby.network.routers0.throttle1.link_utilization     1.733551                      
system.ruby.network.routers0.throttle1.msg_bytes.Control::2        26056                      
system.ruby.network.routers0.throttle1.msg_bytes.Data::2       197640                      
system.ruby.network.routers0.throttle1.msg_count.Control::2         3257                      
system.ruby.network.routers0.throttle1.msg_count.Data::2         2745                      
system.ruby.network.routers1.msg_bytes.Control::2        26056                      
system.ruby.network.routers1.msg_bytes.Data::2       197640                      
system.ruby.network.routers1.msg_bytes.Response_Data::4       234504                      
system.ruby.network.routers1.msg_bytes.Writeback_Control::3        21960                      
system.ruby.network.routers1.msg_count.Control::2         3257                      
system.ruby.network.routers1.msg_count.Data::2         2745                      
system.ruby.network.routers1.msg_count.Response_Data::4         3257                      
system.ruby.network.routers1.msg_count.Writeback_Control::3         2745                      
system.ruby.network.routers1.percent_links_utilized     1.860520                      
system.ruby.network.routers1.port_buffers02.avg_buf_msgs     0.007442                       # Average number of messages in buffer
system.ruby.network.routers1.port_buffers02.avg_stall_time  5098.370729                       # Average number of cycles messages are stalled in this MB
system.ruby.network.routers1.port_buffers06.avg_buf_msgs     0.003404                       # Average number of messages in buffer
system.ruby.network.routers1.port_buffers06.avg_stall_time   998.276493                       # Average number of cycles messages are stalled in this MB
system.ruby.network.routers1.port_buffers07.avg_buf_msgs     0.004038                       # Average number of messages in buffer
system.ruby.network.routers1.port_buffers07.avg_stall_time   999.831369                       # Average number of cycles messages are stalled in this MB
system.ruby.network.routers1.pwrStateResidencyTicks::UNDEFINED    403247500                       # Cumulative time (in ticks) in various power states
system.ruby.network.routers1.throttle0.link_utilization     1.733551                      
system.ruby.network.routers1.throttle0.msg_bytes.Control::2        26056                      
system.ruby.network.routers1.throttle0.msg_bytes.Data::2       197640                      
system.ruby.network.routers1.throttle0.msg_count.Control::2         3257                      
system.ruby.network.routers1.throttle0.msg_count.Data::2         2745                      
system.ruby.network.routers1.throttle1.link_utilization     1.987489                      
system.ruby.network.routers1.throttle1.msg_bytes.Response_Data::4       234504                      
system.ruby.network.routers1.throttle1.msg_bytes.Writeback_Control::3        21960                      
system.ruby.network.routers1.throttle1.msg_count.Response_Data::4         3257                      
system.ruby.network.routers1.throttle1.msg_count.Writeback_Control::3         2745                      
system.ruby.network.routers2.percent_links_utilized            0                      
system.ruby.network.routers2.pwrStateResidencyTicks::UNDEFINED    403247500                       # Cumulative time (in ticks) in various power states
system.ruby.network.routers2.throttle0.link_utilization            0                      
system.ruby.network.routers2.throttle1.link_utilization            0                      
system.ruby.network.routers3.percent_links_utilized            0                      
system.ruby.network.routers3.pwrStateResidencyTicks::UNDEFINED    403247500                       # Cumulative time (in ticks) in various power states
system.ruby.network.routers3.throttle0.link_utilization            0                      
system.ruby.network.routers3.throttle1.link_utilization            0                      
system.ruby.network.routers4.percent_links_utilized            0                      
system.ruby.network.routers4.pwrStateResidencyTicks::UNDEFINED    403247500                       # Cumulative time (in ticks) in various power states
system.ruby.network.routers4.throttle0.link_utilization            0                      
system.ruby.network.routers4.throttle1.link_utilization            0                      
system.ruby.network.routers5.msg_bytes.Control::2        26056                      
system.ruby.network.routers5.msg_bytes.Data::2       197640                      
system.ruby.network.routers5.msg_bytes.Response_Data::4       234504                      
system.ruby.network.routers5.msg_bytes.Writeback_Control::3        21960                      
system.ruby.network.routers5.msg_count.Control::2         3257                      
system.ruby.network.routers5.msg_count.Data::2         2745                      
system.ruby.network.routers5.msg_count.Response_Data::4         3257                      
system.ruby.network.routers5.msg_count.Writeback_Control::3         2745                      
system.ruby.network.routers5.percent_links_utilized     0.744208                      
system.ruby.network.routers5.port_buffers03.avg_buf_msgs     0.003404                       # Average number of messages in buffer
system.ruby.network.routers5.port_buffers03.avg_stall_time  1996.548026                       # Average number of cycles messages are stalled in this MB
system.ruby.network.routers5.port_buffers04.avg_buf_msgs     0.004038                       # Average number of messages in buffer
system.ruby.network.routers5.port_buffers04.avg_stall_time  1999.657778                       # Average number of cycles messages are stalled in this MB
system.ruby.network.routers5.port_buffers07.avg_buf_msgs     0.007442                       # Average number of messages in buffer
system.ruby.network.routers5.port_buffers07.avg_stall_time  4098.391808                       # Average number of cycles messages are stalled in this MB
system.ruby.network.routers5.pwrStateResidencyTicks::UNDEFINED    403247500                       # Cumulative time (in ticks) in various power states
system.ruby.network.routers5.throttle0.link_utilization     1.987489                      
system.ruby.network.routers5.throttle0.msg_bytes.Response_Data::4       234504                      
system.ruby.network.routers5.throttle0.msg_bytes.Writeback_Control::3        21960                      
system.ruby.network.routers5.throttle0.msg_count.Response_Data::4         3257                      
system.ruby.network.routers5.throttle0.msg_count.Writeback_Control::3         2745                      
system.ruby.network.routers5.throttle1.link_utilization     1.733551                      
system.ruby.network.routers5.throttle1.msg_bytes.Control::2        26056                      
system.ruby.network.routers5.throttle1.msg_bytes.Data::2       197640                      
system.ruby.network.routers5.throttle1.msg_count.Control::2         3257                      
system.ruby.network.routers5.throttle1.msg_count.Data::2         2745                      
system.ruby.network.routers5.throttle2.link_utilization            0                      
system.ruby.network.routers5.throttle3.link_utilization            0                      
system.ruby.network.routers5.throttle4.link_utilization            0                      
system.ruby.outstanding_req_hist_seqr::bucket_size            1                      
system.ruby.outstanding_req_hist_seqr::max_bucket            9                      
system.ruby.outstanding_req_hist_seqr::samples       139018                      
system.ruby.outstanding_req_hist_seqr::mean            1                      
system.ruby.outstanding_req_hist_seqr::gmean            1                      
system.ruby.outstanding_req_hist_seqr    |           0      0.00%      0.00% |      139018    100.00%    100.00% |           0      0.00%    100.00% |           0      0.00%    100.00% |           0      0.00%    100.00% |           0      0.00%    100.00% |           0      0.00%    100.00% |           0      0.00%    100.00% |           0      0.00%    100.00% |           0      0.00%    100.00%
system.ruby.outstanding_req_hist_seqr::total       139018                      
system.ruby.pwrStateResidencyTicks::UNDEFINED    403247500                       # Cumulative time (in ticks) in various power states
system.sys_port_proxy.pwrStateResidencyTicks::UNDEFINED    403247500                       # Cumulative time (in ticks) in various power states
system.tsunami.backdoor.pwrStateResidencyTicks::UNDEFINED    403247500                       # Cumulative time (in ticks) in various power states
system.tsunami.cchip.pwrStateResidencyTicks::UNDEFINED    403247500                       # Cumulative time (in ticks) in various power states
system.tsunami.ethernet.coalescedRxDesc           nan                       # average number of RxDesc's coalesced into each post
system.tsunami.ethernet.coalescedRxIdle           nan                       # average number of RxIdle's coalesced into each post
system.tsunami.ethernet.coalescedRxOk             nan                       # average number of RxOk's coalesced into each post
system.tsunami.ethernet.coalescedRxOrn            nan                       # average number of RxOrn's coalesced into each post
system.tsunami.ethernet.coalescedSwi              nan                       # average number of Swi's coalesced into each post
system.tsunami.ethernet.coalescedTotal            nan                       # average number of interrupts coalesced into each post
system.tsunami.ethernet.coalescedTxDesc           nan                       # average number of TxDesc's coalesced into each post
system.tsunami.ethernet.coalescedTxIdle           nan                       # average number of TxIdle's coalesced into each post
system.tsunami.ethernet.coalescedTxOk             nan                       # average number of TxOk's coalesced into each post
system.tsunami.ethernet.descDMAReads                0                       # Number of descriptors the device read w/ DMA
system.tsunami.ethernet.descDMAWrites               0                       # Number of descriptors the device wrote w/ DMA
system.tsunami.ethernet.descDmaReadBytes            0                       # number of descriptor bytes read w/ DMA
system.tsunami.ethernet.descDmaWriteBytes            0                       # number of descriptor bytes write w/ DMA
system.tsunami.ethernet.droppedPackets              0                       # number of packets dropped
system.tsunami.ethernet.postedInterrupts            0                       # number of posts to CPU
system.tsunami.ethernet.postedRxDesc                0                       # number of RxDesc interrupts posted to CPU
system.tsunami.ethernet.postedRxIdle                0                       # number of rxIdle interrupts posted to CPU
system.tsunami.ethernet.postedRxOk                  0                       # number of RxOk interrupts posted to CPU
system.tsunami.ethernet.postedRxOrn                 0                       # number of RxOrn posted to CPU
system.tsunami.ethernet.postedSwi                   0                       # number of software interrupts posted to CPU
system.tsunami.ethernet.postedTxDesc                0                       # number of TxDesc interrupts posted to CPU
system.tsunami.ethernet.postedTxIdle                0                       # number of TxIdle interrupts posted to CPU
system.tsunami.ethernet.postedTxOk                  0                       # number of TxOk interrupts posted to CPU
system.tsunami.ethernet.pwrStateResidencyTicks::UNDEFINED    403247500                       # Cumulative time (in ticks) in various power states
system.tsunami.ethernet.totalRxDesc                 0                       # total number of RxDesc written to ISR
system.tsunami.ethernet.totalRxIdle                 0                       # total number of RxIdle written to ISR
system.tsunami.ethernet.totalRxOk                   0                       # total number of RxOk written to ISR
system.tsunami.ethernet.totalRxOrn                  0                       # total number of RxOrn written to ISR
system.tsunami.ethernet.totalSwi                    0                       # total number of Swi written to ISR
system.tsunami.ethernet.totalTxDesc                 0                       # total number of TxDesc written to ISR
system.tsunami.ethernet.totalTxIdle                 0                       # total number of TxIdle written to ISR
system.tsunami.ethernet.totalTxOk                   0                       # total number of TxOk written to ISR
system.tsunami.fake_OROM.pwrStateResidencyTicks::UNDEFINED    403247500                       # Cumulative time (in ticks) in various power states
system.tsunami.fake_ata0.pwrStateResidencyTicks::UNDEFINED    403247500                       # Cumulative time (in ticks) in various power states
system.tsunami.fake_ata1.pwrStateResidencyTicks::UNDEFINED    403247500                       # Cumulative time (in ticks) in various power states
system.tsunami.fake_pnp_addr.pwrStateResidencyTicks::UNDEFINED    403247500                       # Cumulative time (in ticks) in various power states
system.tsunami.fake_pnp_read0.pwrStateResidencyTicks::UNDEFINED    403247500                       # Cumulative time (in ticks) in various power states
system.tsunami.fake_pnp_read1.pwrStateResidencyTicks::UNDEFINED    403247500                       # Cumulative time (in ticks) in various power states
system.tsunami.fake_pnp_read2.pwrStateResidencyTicks::UNDEFINED    403247500                       # Cumulative time (in ticks) in various power states
system.tsunami.fake_pnp_read3.pwrStateResidencyTicks::UNDEFINED    403247500                       # Cumulative time (in ticks) in various power states
system.tsunami.fake_pnp_read4.pwrStateResidencyTicks::UNDEFINED    403247500                       # Cumulative time (in ticks) in various power states
system.tsunami.fake_pnp_read5.pwrStateResidencyTicks::UNDEFINED    403247500                       # Cumulative time (in ticks) in various power states
system.tsunami.fake_pnp_read6.pwrStateResidencyTicks::UNDEFINED    403247500                       # Cumulative time (in ticks) in various power states
system.tsunami.fake_pnp_read7.pwrStateResidencyTicks::UNDEFINED    403247500                       # Cumulative time (in ticks) in various power states
system.tsunami.fake_pnp_write.pwrStateResidencyTicks::UNDEFINED    403247500                       # Cumulative time (in ticks) in various power states
system.tsunami.fake_ppc.pwrStateResidencyTicks::UNDEFINED    403247500                       # Cumulative time (in ticks) in various power states
system.tsunami.fake_sm_chip.pwrStateResidencyTicks::UNDEFINED    403247500                       # Cumulative time (in ticks) in various power states
system.tsunami.fake_uart1.pwrStateResidencyTicks::UNDEFINED    403247500                       # Cumulative time (in ticks) in various power states
system.tsunami.fake_uart2.pwrStateResidencyTicks::UNDEFINED    403247500                       # Cumulative time (in ticks) in various power states
system.tsunami.fake_uart3.pwrStateResidencyTicks::UNDEFINED    403247500                       # Cumulative time (in ticks) in various power states
system.tsunami.fake_uart4.pwrStateResidencyTicks::UNDEFINED    403247500                       # Cumulative time (in ticks) in various power states
system.tsunami.fb.pwrStateResidencyTicks::UNDEFINED    403247500                       # Cumulative time (in ticks) in various power states
system.tsunami.ide.pwrStateResidencyTicks::UNDEFINED    403247500                       # Cumulative time (in ticks) in various power states
system.tsunami.io.pwrStateResidencyTicks::UNDEFINED    403247500                       # Cumulative time (in ticks) in various power states
system.tsunami.pchip.pwrStateResidencyTicks::UNDEFINED    403247500                       # Cumulative time (in ticks) in various power states
system.tsunami.uart.pwrStateResidencyTicks::UNDEFINED    403247500                       # Cumulative time (in ticks) in various power states
system.voltage_domain.voltage                       1                       # Voltage in Volts

---------- End Simulation Statistics   ----------
